[TITLE]

[OPTIONS]
FLOW_UNITS           LPS
INFILTRATION         HORTON
FLOW_ROUTING         DYNWAVE
START_DATE           10/21/2014
START_TIME           21:54:00
REPORT_START_DATE    10/21/2014
REPORT_START_TIME    21:54:00
END_DATE             10/22/2014
END_TIME             06:02:00
SWEEP_START          01/01
SWEEP_END            12/31
DRY_DAYS             0
REPORT_STEP          00:02:00
WET_STEP             00:02:00
DRY_STEP             01:00:00
ROUTING_STEP         0:00:05 
ALLOW_PONDING        NO
INERTIAL_DAMPING     PARTIAL
VARIABLE_STEP        0.75
LENGTHENING_STEP     1
MIN_SURFAREA         0
NORMAL_FLOW_LIMITED  BOTH
SKIP_STEADY_STATE    NO
FORCE_MAIN_EQUATION  H-W
LINK_OFFSETS         DEPTH
MIN_SLOPE            0

[EVAPORATION]
;;Type       Parameters
;;---------- ----------
CONSTANT     0.0
DRY_ONLY     NO

[RAINGAGES]
;;               Rain      Time   Snow   Data      
;;Name           Type      Intrvl Catch  Source    
;;-------------- --------- ------ ------ ----------
RG1              INTENSITY 0:01   1.0    TIMESERIES RAINDAT_1             
RG2              INTENSITY 0:01   1.0    TIMESERIES RAINDAT_2             
RG3              INTENSITY 0:01   1.0    TIMESERIES RAINDAT_3             

[SUBCATCHMENTS]
;;                                                 Total    Pcnt.             Pcnt.    Curb     Snow    
;;Name           Raingage         Outlet           Area     Imperv   Width    Slope    Length   Pack    
;;-------------- ---------------- ---------------- -------- -------- -------- -------- -------- --------
0                RG2              287045           0.11     73       60       5        0                        
1                RG2              291509           0.97     24       60       5        0                        
2                RG2              390062           0.21     62       60       5        0                        
3                RG2              288393           0.19     37       60       5        0                        
4                RG2              288400           0.1      30       60       5        0                        
5                RG2              288391           0.27     56       60       5        0                        
6                RG2              288399           0.22     36       60       5        0                        
7                RG2              287047           0.17     29       60       5        0                        
8                RG2              288389           0.25     84       60       5        0                        
9                RG2              288023           0.38     55       60       5        0                        
10               RG2              287161           0.36     28       60       5        0                        
11               RG2              287153           0.48     50       60       5        0                        
12               RG2              389612           0.36     75       60       5        0                        
13               RG2              288473           0.18     50       60       5        0                        
14               RG2              288481           0.07     100      60       5        0                        
15               RG2              288477           0.3      67       60       5        0                        
16               RG2              288471           0.5      50       60       5        0                        
17               RG2              288486           0.29     31       60       5        0                        
18               RG2              288486           0.53     49       60       5        0                        
19               RG2              287150           0.37     65       60       5        0                        
20               RG2              288479           0.24     75       60       5        0                        
21               RG2              288628           0.24     54       60       5        0                        
22               RG2              390070           0.55     76       60       5        0                        
23               RG2              288483           0.5      38       60       5        0                        
24               RG2              288567           0.19     63       60       5        0                        
25               RG2              288488           0.28     29       60       5        0                        
26               RG2              288488           0.77     40       60       5        0                        
27               RG2              286998           0.34     53       60       5        0                        
28               RG2              286998           0.13     46       60       5        0                        
29               RG2              286996           0.46     43       60       5        0                        
30               RG2              287932           0.45     53       60       5        0                        
31               RG2              287424           0.47     68       60       5        0                        
32               RG2              287005           0.48     67       60       5        0                        
33               RG2              291120           0.54     76       60       5        0                        
34               RG2              287935           0.43     58       60       5        0                        
35               RG2              291054           0.58     53       60       5        0                        
36               RG2              286796           0.79     70       60       5        0                        
37               RG2              287932           0.35     69       60       5        0                        
38               RG2              291117           0.14     50       60       5        0                        
39               RG2              291057           0.08     50       60       5        0                        
40               RG2              291119           0.14     93       60       5        0                        
41               RG2              287777           0.56     55       60       5        0                        
42               RG2              389470           0.07     43       60       5        0                        
43               RG2              389470           0.47     53       60       5        0                        
44               RG2              389470           0.05     100      60       5        0                        
45               RG2              286796           0.06     67       60       5        0                        
46               RG2              291056           0.01     100      60       5        0                        
47               RG2              291056           0.11     82       60       5        0                        
48               RG2              287706           0.11     91       60       5        0                        
49               RG2              287892           0.04     25       60       5        0                        
50               RG2              287422           0.01     0        60       5        0                        
51               RG2              287780           0.2      70       60       5        0                        
52               RG2              389544           0.53     72       60       5        0                        
53               RG2              287422           0.09     44       60       5        0                        
54               RG2              288009           0.01     100      60       5        0                        
55               RG2              287786           0.16     88       60       5        0                        
56               RG2              287000           0.91     58       60       5        0                        
57               RG2              287421           0.75    64       60       5        0                        
58               RG2              287892           0.62     18       60       5        0                        
59               RG2              287773           0.12     33       60       5        0                        
60               RG2              291528           0.3      97       100      2.5      0                        
61               RG2              287626           0.32     97       100      2.5      0                        
62               RG2              287623           0.31     84       100      2.5      0                        
63               RG2              287689           0.3      83       100      2.5      0                        
64               RG2              287530           0.29     93       100      2.5      0                        
65               RG2              291273           0.32     81       100      2.5      0                        
66               RG2              384689           0.31     61       100      2.5      0                        
67               RG1              287276           2.82     66       80       1.5      0                        
68               RG3              286945           0.86     0        70       1.5      0                        
69               RG2              384689           0.18     44       80       1.5      0                        
70               RG1              286798           1.39     3        50       1.5      0                        
71               RG1              291370           0.74     41       70       2        0                        
72               RG3              291510           1.52     53       60       5        0                        
73               RG2              291277           1.24     47       60       5        0                        
74               RG3              291209           0.69     67       60       5        0                        
75               RG3              289317           0.66     61       60       5        0                        
76               RG3              390425           0.27     70       60       5        0                        
77               RG3              228512           0.78     82       60       5        0                        
78               RG1              288015           3.05     25       90       2        0                        
80               RG1              288011           2.03     27       70       1.5      0                        
81               RG2              287582           0.87     41       60       5        0                        
82               RG2              287583           0.62     56       60       5        0                        
83               RG2              287653           0.76     26       60       5        0                        
84               RG2              287587           0.47     66       60       5        0                        
85               RG2              291051           0.33     67       60       5        0                        
86               RG2              291050           0.21     38       60       5        0                        
87               RG2              291047           0.4      52       60       5        0                        
88               RG2              291044           0.79     49       60       5        0                        
89               RG2              291043           0.35     77       60       5        0                        
90               RG2              389683           0.38     63       60       5        0                        
91               RG2              287852           0.79     28       60       5        0                        
92               RG2              287851           0.77     26       60       5        0                        
93               RG2              287425           0.72     71       60       5        0                        
94               RG3              287664           0.12     92       60       5        0                        
95               RG1              287663           0.3      50       60       5        0                        
96               RG3              287663           0.03     100      60       5        0                        
97               RG3              287348           0.08     100      60       5        0                        
98               RG1              287348           0.07     86       60       5        0                        
99               RG2              287349           0.1      90       60       5        0                        
100              RG2              287410           0.12     75       60       5        0                        
101              RG2              287250           0.04     75       60       5        0                        
102              RG2              287421           0.22     68       60       5        0                        
103              RG2              287427           0.44     43       60       5        0                        
104              RG2              291275           0.05     60       60       5        0                        
105              RG2              290971           0.44     66       60       5        0                        
106              RG3              287896           0.67     70       60       5        0                        
107              RG3              287657           0.42     64       60       5        0                        
108              RG1              287655           0.6      70       60       5        0                        
109              RG3              287417           0.28     61       60       5        0                        
110              RG3              287416           0.12     67       60       5        0                        
111              RG3              287415           0.51     39       60       5        0                        
112              RG3              287413           0.47     49       60       5        0                        
113              RG3              287659           0.9      53       60       5        0                        
114              RG3              287420           0.21     57       60       5        0                        
115              RG3              287189           0.02     50       60       5        0                        
116              RG3              287189           0.03     67       60       5        0                        
117              RG2              288552           2.45     48       60       5        0                        
118              RG2              288548           2.2      50       60       5        0                        
119              RG2              288009           0.49     67       60       5        0                        
120              RG2              389837           0.4      83       60       5        0                        
121              RG3              287188           0.29     66       60       5        0                        
122              RG3              287663           0.11     36       60       5        0                        
123              RG3              291196           0.74     47       60       5        0                        
124              RG2              291135           0.38     55       60       5        0                        
125              RG3              291133           0.39     46       60       5        0                        
126              RG3              79               0.02     50       60       5        0                        
127              RG3              291366           0.37     41       60       5        0                        
128              RG3              291361           0.15     67       60       5        0                        
129              RG3              291207           0.1      70       60       5        0                        
130              RG3              291446           0.04     100      60       5        0                        
131              RG3              203259           0.69     64       60       5        0                        
132              RG3              291287           0.42     60       60       5        0                        
133              RG3              291352           0.36     53       60       5        0                        
134              RG3              135              0.41     56       60       5        0                        
135              RG3              291287           0.33     21       60       5        0                        
136              RG3              291292           0.24     29       60       5        0                        
137              RG3              288018           0.59     49       60       5        0                        
138              RG3              287948           0.24     63       60       5        0                        
139              RG3              286991           0.16     44       60       5        0                        
140              RG3              288021           0.14     50       60       5        0                        
141              RG3              286930           0.14     93       60       5        0                        
142              RG3              288022           0.21     67       60       5        0                        
143              RG3              287936           0.11     82       60       5        0                        
144              RG3              286929           0.12     100      60       5        0                        
145              RG3              286928           0.12     92       60       5        0                        
146              RG3              288020           0.26     54       60       5        0                        
147              RG3              286993           0.49     43       60       5        0                        
148              RG3              162              0.54     41       60       5        0                        
149              RG3              291200           0.5      52       60       5        0                        
150              RG3              291204           0.51     61       60       5        0                        
151              RG3              291448           0.01     100      60       5        0                        
152              RG3              291205           0.07     71       60       5        0                        
153              RG3              291287           0.47     34       60       5        0                        
154              RG3              291361           0.41     83       60       5        0                        
155              RG3              291358           0.77     51       60       5        0                        
156              RG3              291207           0.16     56       60       5        0                        
157              RG3              390000           0.5      70       60       5        0                        
158              RG3              287944           0.16     81       60       5        0                        
159              RG3              389908           0.1      70       60       5        0                        
160              RG3              389908           0.05     100      60       5        0                        
161              RG3              287941           0.11     91       60       5        0                        
162              RG3              286926           0.03     100      60       5        0                        
163              RG3              291282           0.15     47       60       5        0                        
164              RG3              291206           0.04     50       60       5        0                        
165              RG3              291282           0.06     67       60       5        0                        
166              RG3              291206           0.14     43       60       5        0                        
167              RG3              287539           0.51     61       60       5        0                        
168              RG3              286924           0.14     79       60       5        0                        
169              RG3              287940           0.16     75       60       5        0                        
170              RG3              286924           0.06     83       60       5        0                        
171              RG2              291038           0.13     46       60       5        0                        
172              RG2              291039           0.32     25       60       5        0                        
173              RG2              291040           0.51     10       60       5        0                        
175              RG1              389482           3.3      51       100      1.5      0                        
176              RG1              287672           2.02     72       60       1.5      0                        
177              RG2              288395           1.96     15       60       5        0                        
178              RG2              380704           7.3      88       230      15       0                        
180              RG2              287572           5.91     20       90       8        0                        
181              RG2              288797           1.54     22       20       1.5      0                        
182              RG2              288723           0.81     1        80       1.5      0                        
183              RG2              288792           1.86     25       50       1.5      0                        
184              RG1              288026           1.88     31       80       1.5      0                        
185              RG1              286832           2.08     78       60       1.5      0                        
186              RG2              380441           1.5      0        80       1.5      0                        
187              RG2              376070           0.72     46       100      1.5      0                        
188              RG2              376001           1.96     70       150      15       0                        
189              RG2              388709           0.89     0        80       1.5      0                        
190              RG2              287623           0.54     89       100      2.5      0                        
191              RG2              378688           1.28     40       80       8        0                        
192              RG2              390522           0.78     60       100      8        0                        
193              RG2              388709           1.77     0        80       1.5      0                        
194              RG2              388708           0.51     25       20       1.5      0                        
196              RG2              380359           3.12     70       150      15       0                        
197              RG2              385327           7.34     70       230      3        0                        
198              RG2              379567           3.27     95       200      15       0                        

[SUBAREAS]
;;Subcatchment   N-Imperv   N-Perv     S-Imperv   S-Perv     PctZero    RouteTo    PctRouted 
;;-------------- ---------- ---------- ---------- ---------- ---------- ---------- ----------
0 0.0125 0.18 1 6 35 PERVIOUS 54
1 0.0125 0.18 1 5.08 35 PERVIOUS 54
2 0.0125 0.18 1 6 35 PERVIOUS 54
3 0.0125 0.18 1 6 35 PERVIOUS 54
4 0.0125 0.18 1 6 35 PERVIOUS 54
5 0.0125 0.18 1 6 35 PERVIOUS 54
6 0.0125 0.18 1 6 35 PERVIOUS 54
7 0.0125 0.18 1 6 35 PERVIOUS 54
8 0.0125 0.18 1 6 35 PERVIOUS 54
9 0.0125 0.18 1 3.5 35 PERVIOUS 54
10 0.0125 0.18 1 3.5 35 PERVIOUS 54
11 0.0125 0.18 1 5.08 35 PERVIOUS 54
12 0.0125 0.18 1 6 35 PERVIOUS 54
13 0.0125 0.18 1 6 35 PERVIOUS 54
14 0.0125 0.18 1 6 35 PERVIOUS 54
15 0.0125 0.18 1 6 35 PERVIOUS 54
16 0.0125 0.18 1 6 35 PERVIOUS 54
17 0.0125 0.18 1 6 35 PERVIOUS 54
18 0.0125 0.18 1 6 35 PERVIOUS 54
19 0.0125 0.18 1 6 35 PERVIOUS 54
20 0.0125 0.18 1 6 35 PERVIOUS 54
21 0.0125 0.18 1 6 35 PERVIOUS 54
22 0.0125 0.18 1 6 35 PERVIOUS 54
23 0.0125 0.18 1 6 35 PERVIOUS 54
24 0.0125 0.18 1 6 35 PERVIOUS 54
25 0.0125 0.18 1 6 35 PERVIOUS 54
26 0.0125 0.18 1 6 35 PERVIOUS 54
27 0.0125 0.18 1 6 35 PERVIOUS 54
28 0.0125 0.18 1 6 35 PERVIOUS 54
29 0.0125 0.18 1 6 35 PERVIOUS 54
30 0.0125 0.18 1 6 35 PERVIOUS 54
31 0.0125 0.18 1 6 35 PERVIOUS 54
32 0.0125 0.18 1 6 35 PERVIOUS 54
33 0.0125 0.18 1 6 35 PERVIOUS 54
34 0.0125 0.18 1 6 35 PERVIOUS 54
35 0.0125 0.18 1 6 35 PERVIOUS 54
36 0.0125 0.18 1 6 35 PERVIOUS 54
37 0.0125 0.18 1 6 35 PERVIOUS 54
38 0.0125 0.18 1 6 35 PERVIOUS 54
39 0.0125 0.18 1 6 35 PERVIOUS 54
40 0.0125 0.18 1 6 35 PERVIOUS 54
41 0.0125 0.18 1 6 35 PERVIOUS 54
42 0.0125 0.18 1 6 35 PERVIOUS 54
43 0.0125 0.18 1 6 35 PERVIOUS 54
44 0.0125 0.18 1 6 35 PERVIOUS 54
45 0.0125 0.18 1 6 35 PERVIOUS 54
46 0.0125 0.18 1 6 35 PERVIOUS 54
47 0.0125 0.18 1 6 35 PERVIOUS 54
48 0.0125 0.18 1 6 35 PERVIOUS 54
49 0.0125 0.18 1 6 35 PERVIOUS 54
50 0.0125 0.18 1 6 35 PERVIOUS 54
51 0.0125 0.18 1 6 35 PERVIOUS 54
52 0.0125 0.18 1 6 35 PERVIOUS 54
53 0.0125 0.18 1 6 35 PERVIOUS 54
54 0.0125 0.18 1 6 35 PERVIOUS 54
55 0.0125 0.18 1 6 35 PERVIOUS 54
56 0.0125 0.18 1 6 35 PERVIOUS 54
57 0.0125 0.18 1 6 35 PERVIOUS 54
58 0.0125 0.18 1 6 35 PERVIOUS 54
59 0.0125 0.18 1 6 35 PERVIOUS 54
60 0.011 0.18 1.9 3.5 80 OUTLET
61 0.011 0.18 1.9 3.5 80 OUTLET
62 0.011 0.18 1.9 3.5 80 OUTLET
63 0.011 0.18 1.9 3.5 80 OUTLET
64 0.011 0.18 1.9 3.5 80 OUTLET
65 0.011 0.18 1.9 3.5 80 OUTLET
66 0.011 0.18 1.9 3.5 80 OUTLET
67 0.015 0.18 2.54 6 15 PERVIOUS 54
68 0.013 0.18 1.9 3.5 25 PERVIOUS 54
69 0.011 0.18 1.9 3.5 25 PERVIOUS 50
70 0.013 0.18 2.54 6 25 PERVIOUS 54
71 0.013 0.18 2.54 6 25 PERVIOUS 54
72 0.0125 0.18 1 5.08 35 PERVIOUS 54
73 0.0125 0.18 1 6 35 PERVIOUS 54
74 0.0125 0.18 1 6 35 PERVIOUS 54
75 0.0125 0.18 1 6 35 PERVIOUS 54
76 0.0125 0.18 1 5.08 35 PERVIOUS 54
77 0.0125 0.18 1 6 35 PERVIOUS 54
78 0.013 0.18 2.54 6 25 PERVIOUS 54
80 0.013 0.18 2.54 6 25 PERVIOUS 54
81 0.0125 0.18 1 6 35 PERVIOUS 54
82 0.0125 0.18 1 6 35 PERVIOUS 54
83 0.0125 0.18 1 6 35 PERVIOUS 54
84 0.0125 0.18 1 6 35 PERVIOUS 54
85 0.0125 0.18 1 6 35 PERVIOUS 54
86 0.0125 0.18 1 6 35 PERVIOUS 54
87 0.0125 0.18 1 6 35 PERVIOUS 54
88 0.0125 0.18 1 6 35 PERVIOUS 54
89 0.0125 0.18 1 6 35 PERVIOUS 54
90 0.0125 0.18 1 6 35 PERVIOUS 54
91 0.0125 0.18 1 6 35 PERVIOUS 54
92 0.0125 0.18 1 6 35 PERVIOUS 54
93 0.0125 0.18 1 6 35 PERVIOUS 54
94 0.0125 0.18 1 6 35 PERVIOUS 54
95 0.0125 0.18 1 6 35 PERVIOUS 54
96 0.0125 0.18 1 6 35 PERVIOUS 54
97 0.0125 0.18 1 6 35 PERVIOUS 54
98 0.0125 0.18 1 6 35 PERVIOUS 54
99 0.0125 0.18 1 6 35 PERVIOUS 54
100 0.0125 0.18 1 6 35 PERVIOUS 54
101 0.0125 0.18 1 6 35 PERVIOUS 54
102 0.0125 0.18 1 6 35 PERVIOUS 54
103 0.0125 0.18 1 6 35 PERVIOUS 54
104 0.0125 0.18 1 6 35 PERVIOUS 54
105 0.0125 0.18 1 6 35 PERVIOUS 54
106 0.0125 0.18 1 6 35 PERVIOUS 54
107 0.0125 0.18 1 6 35 PERVIOUS 54
108 0.0125 0.18 1 6 35 PERVIOUS 54
109 0.0125 0.18 1 6 35 PERVIOUS 54
110 0.0125 0.18 1 6 35 PERVIOUS 54
111 0.0125 0.18 1 6 35 PERVIOUS 54
112 0.0125 0.18 1 6 35 PERVIOUS 54
113 0.0125 0.18 1 6 35 PERVIOUS 54
114 0.0125 0.18 1 6 35 PERVIOUS 54
115 0.0125 0.18 1 6 35 PERVIOUS 54
116 0.0125 0.18 1 6 35 PERVIOUS 54
117 0.0125 0.18 1 6 35 PERVIOUS 54
118 0.0125 0.18 1 6 35 PERVIOUS 54
119 0.0125 0.18 1 6 35 PERVIOUS 54
120 0.0125 0.18 1 6 35 PERVIOUS 54
121 0.0125 0.18 1 6 35 PERVIOUS 54
122 0.0125 0.18 1 6 35 PERVIOUS 54
123 0.0125 0.18 1 6 35 PERVIOUS 54
124 0.0125 0.18 1 6 35 PERVIOUS 54
125 0.0125 0.18 1 6 35 PERVIOUS 54
126 0.0125 0.18 1 6 35 PERVIOUS 54
127 0.0125 0.18 1 6 35 PERVIOUS 54
128 0.0125 0.18 1 6 35 PERVIOUS 54
129 0.0125 0.18 1 6 35 PERVIOUS 54
130 0.0125 0.18 1 6 35 PERVIOUS 54
131 0.0125 0.18 1 6 35 PERVIOUS 54
132 0.0125 0.18 1 6 35 PERVIOUS 54
133 0.0125 0.18 1 6 35 PERVIOUS 54
134 0.0125 0.18 1 6 35 PERVIOUS 54
135 0.0125 0.18 1 6 35 PERVIOUS 54
136 0.0125 0.18 1 6 35 PERVIOUS 54
137 0.0125 0.18 1 6 35 PERVIOUS 54
138 0.0125 0.18 1 6 35 PERVIOUS 54
139 0.0125 0.18 1 6 35 PERVIOUS 54
140 0.0125 0.18 1 6 35 PERVIOUS 54
141 0.0125 0.18 1 6 35 PERVIOUS 54
142 0.0125 0.18 1 6 35 PERVIOUS 54
143 0.0125 0.18 1 6 35 PERVIOUS 54
144 0.0125 0.18 1 6 35 PERVIOUS 54
145 0.0125 0.18 1 6 35 PERVIOUS 54
146 0.0125 0.18 1 6 35 PERVIOUS 54
147 0.0125 0.18 1 6 35 PERVIOUS 54
148 0.0125 0.18 1 6 35 PERVIOUS 54
149 0.0125 0.18 1 6 35 PERVIOUS 54
150 0.0125 0.18 1 6 35 PERVIOUS 54
151 0.0125 0.18 1 6 35 PERVIOUS 54
152 0.0125 0.18 1 6 35 PERVIOUS 54
153 0.0125 0.18 1 6 35 PERVIOUS 54
154 0.0125 0.18 1 6 35 PERVIOUS 54
155 0.0125 0.18 1 6 35 PERVIOUS 54
156 0.0125 0.18 1 6 35 PERVIOUS 54
157 0.0125 0.18 1 6 35 PERVIOUS 54
158 0.0125 0.18 1 6 35 PERVIOUS 54
159 0.0125 0.18 1 6 35 PERVIOUS 54
160 0.0125 0.18 1 6 35 PERVIOUS 54
161 0.0125 0.18 1 6 35 PERVIOUS 54
162 0.0125 0.18 1 6 35 PERVIOUS 54
163 0.0125 0.18 1 6 35 PERVIOUS 54
164 0.0125 0.18 1 6 35 PERVIOUS 54
165 0.0125 0.18 1 6 35 PERVIOUS 54
166 0.0125 0.18 1 6 35 PERVIOUS 54
167 0.0125 0.18 1 6 35 PERVIOUS 54
168 0.0125 0.18 1 6 35 PERVIOUS 54
169 0.0125 0.18 1 6 35 PERVIOUS 54
170 0.0125 0.18 1 6 35 PERVIOUS 54
171 0.0125 0.18 1 6 35 PERVIOUS 54
172 0.0125 0.18 1 6 35 PERVIOUS 54
173 0.0125 0.18 1 6 35 PERVIOUS 54
175 0.013 0.18 2.54 6 25 PERVIOUS 54
176 0.015 0.18 2.54 6 15 PERVIOUS 54
177 0.0125 0.18 1 5.08 35 PERVIOUS 54
178 0.011 0.18 10 3.5 60 PERVIOUS 9
180 0.013 0.18 1.9 3.5 25 PERVIOUS 50
181 0.013 0.18 1.9 3.5 25 PERVIOUS 50